Data/networks/opendssNetworks/network_4/Feeder_4/Loads - Copy.txt
New Load.LOAD1 Phases=1 Bus1=75.1 kV=0.23 kW=1 PF=0.95
New Load.LOAD2 Phases=1 Bus1=85.2 kV=0.23 kW=1 PF=0.95
New Load.LOAD3 Phases=1 Bus1=89.3 kV=0.23 kW=1 PF=0.95
New Load.LOAD4 Phases=1 Bus1=100.1 kV=0.23 kW=1 PF=0.95
New Load.LOAD5 Phases=1 Bus1=101.2 kV=0.23 kW=1 PF=0.95
New Load.LOAD6 Phases=1 Bus1=102.2 kV=0.23 kW=1 PF=0.95
New Load.LOAD7 Phases=1 Bus1=140.3 kV=0.23 kW=1 PF=0.95
New Load.LOAD8 Phases=1 Bus1=159.1 kV=0.23 kW=1 PF=0.95
New Load.LOAD9 Phases=1 Bus1=168.2 kV=0.23 kW=1 PF=0.95
New Load.LOAD10 Phases=1 Bus1=193.3 kV=0.23 kW=1 PF=0.95
New Load.LOAD11 Phases=1 Bus1=194.3 kV=0.23 kW=1 PF=0.95
New Load.LOAD12 Phases=1 Bus1=195.3 kV=0.23 kW=1 PF=0.95
New Load.LOAD13 Phases=1 Bus1=197.1 kV=0.23 kW=1 PF=0.95
New Load.LOAD14 Phases=1 Bus1=233.2 kV=0.23 kW=1 PF=0.95
New Load.LOAD15 Phases=1 Bus1=280.3 kV=0.23 kW=1 PF=0.95
New Load.LOAD16 Phases=1 Bus1=308.1 kV=0.23 kW=1 PF=0.95
New Load.LOAD17 Phases=1 Bus1=327.2 kV=0.23 kW=1 PF=0.95
New Load.LOAD18 Phases=1 Bus1=363.3 kV=0.23 kW=1 PF=0.95
New Load.LOAD19 Phases=1 Bus1=370.1 kV=0.23 kW=1 PF=0.95
New Load.LOAD20 Phases=1 Bus1=372.2 kV=0.23 kW=1 PF=0.95
New Load.LOAD21 Phases=1 Bus1=382.3 kV=0.23 kW=1 PF=0.95
New Load.LOAD22 Phases=1 Bus1=392.1 kV=0.23 kW=1 PF=0.95
New Load.LOAD23 Phases=1 Bus1=402.2 kV=0.23 kW=1 PF=0.95
New Load.LOAD24 Phases=1 Bus1=407.3 kV=0.23 kW=1 PF=0.95
New Load.LOAD25 Phases=1 Bus1=418.1 kV=0.23 kW=1 PF=0.95
New Load.LOAD26 Phases=1 Bus1=432.1 kV=0.23 kW=1 PF=0.95
New Load.LOAD27 Phases=1 Bus1=446.2 kV=0.23 kW=1 PF=0.95
New Load.LOAD28 Phases=1 Bus1=480.3 kV=0.23 kW=1 PF=0.95
New Load.LOAD29 Phases=1 Bus1=485.1 kV=0.23 kW=1 PF=0.95
New Load.LOAD30 Phases=1 Bus1=486.1 kV=0.23 kW=1 PF=0.95
New Load.LOAD31 Phases=1 Bus1=517.2 kV=0.23 kW=1 PF=0.95
New Load.LOAD32 Phases=1 Bus1=525.1 kV=0.23 kW=1 PF=0.95
New Load.LOAD33 Phases=1 Bus1=588.2 kV=0.23 kW=1 PF=0.95
New Load.LOAD34 Phases=1 Bus1=589.1 kV=0.23 kW=1 PF=0.95
New Load.LOAD35 Phases=1 Bus1=590.2 kV=0.23 kW=1 PF=0.95
New Load.LOAD36 Phases=1 Bus1=593.3 kV=0.23 kW=1 PF=0.95
New Load.LOAD37 Phases=1 Bus1=599.3 kV=0.23 kW=1 PF=0.95
New Load.LOAD38 Phases=1 Bus1=605.1 kV=0.23 kW=1 PF=0.95
New Load.LOAD39 Phases=1 Bus1=606.1 kV=0.23 kW=1 PF=0.95
New Load.LOAD40 Phases=1 Bus1=614.3 kV=0.23 kW=1 PF=0.95
New Load.LOAD41 Phases=1 Bus1=635.2 kV=0.23 kW=1 PF=0.95
New Load.LOAD42 Phases=1 Bus1=657.3 kV=0.23 kW=1 PF=0.95
New Load.LOAD43 Phases=1 Bus1=665.2 kV=0.23 kW=1 PF=0.95
New Load.LOAD44 Phases=1 Bus1=668.3 kV=0.23 kW=1 PF=0.95
New Load.LOAD45 Phases=1 Bus1=676.3 kV=0.23 kW=1 PF=0.95
New Load.LOAD46 Phases=1 Bus1=681.1 kV=0.23 kW=1 PF=0.95
New Load.LOAD47 Phases=1 Bus1=684.1 kV=0.23 kW=1 PF=0.95
New Load.LOAD48 Phases=1 Bus1=700.2 kV=0.23 kW=1 PF=0.95
New Load.LOAD49 Phases=1 Bus1=711.3 kV=0.23 kW=1 PF=0.95
New Load.LOAD50 Phases=1 Bus1=725.1 kV=0.23 kW=1 PF=0.95
New Load.LOAD51 Phases=1 Bus1=731.2 kV=0.23 kW=1 PF=0.95
New Load.LOAD52 Phases=1 Bus1=767.1 kV=0.23 kW=1 PF=0.95
New Load.LOAD53 Phases=1 Bus1=818.2 kV=0.23 kW=1 PF=0.95
New Load.LOAD54 Phases=1 Bus1=845.3 kV=0.23 kW=1 PF=0.95
New Load.LOAD55 Phases=1 Bus1=858.1 kV=0.23 kW=1 PF=0.95
New Load.LOAD56 Phases=1 Bus1=896.1 kV=0.23 kW=1 PF=0.95
New Load.LOAD57 Phases=1 Bus1=900.2 kV=0.23 kW=1 PF=0.95
New Load.LOAD58 Phases=1 Bus1=941.1 kV=0.23 kW=1 PF=0.95
New Load.LOAD59 Phases=1 Bus1=953.2 kV=0.23 kW=1 PF=0.95
New Load.LOAD60 Phases=1 Bus1=958.2 kV=0.23 kW=1 PF=0.95
New Load.LOAD61 Phases=1 Bus1=1040.3 kV=0.23 kW=1 PF=0.95
New Load.LOAD62 Phases=1 Bus1=1041.1 kV=0.23 kW=1 PF=0.95
New Load.LOAD63 Phases=1 Bus1=1055.2 kV=0.23 kW=1 PF=0.95
New Load.LOAD64 Phases=1 Bus1=1064.1 kV=0.23 kW=1 PF=0.95
New Load.LOAD65 Phases=1 Bus1=1085.3 kV=0.23 kW=1 PF=0.95
New Load.LOAD66 Phases=1 Bus1=1088.3 kV=0.23 kW=1 PF=0.95
New Load.LOAD67 Phases=1 Bus1=1095.2 kV=0.23 kW=1 PF=0.95
New Load.LOAD68 Phases=1 Bus1=1110.3 kV=0.23 kW=1 PF=0.95
New Load.LOAD69 Phases=1 Bus1=1117.1 kV=0.23 kW=1 PF=0.95
New Load.LOAD70 Phases=1 Bus1=1118.2 kV=0.23 kW=1 PF=0.95
New Load.LOAD71 Phases=1 Bus1=1132.1 kV=0.23 kW=1 PF=0.95
New Load.LOAD72 Phases=1 Bus1=1137.1 kV=0.23 kW=1 PF=0.95
New Load.LOAD73 Phases=1 Bus1=1138.2 kV=0.23 kW=1 PF=0.95
New Load.LOAD74 Phases=1 Bus1=1140.1 kV=0.23 kW=1 PF=0.95
New Load.LOAD75 Phases=1 Bus1=1155.2 kV=0.23 kW=1 PF=0.95
New Load.LOAD76 Phases=1 Bus1=1156.3 kV=0.23 kW=1 PF=0.95
New Load.LOAD77 Phases=1 Bus1=1159.3 kV=0.23 kW=1 PF=0.95
New Load.LOAD78 Phases=1 Bus1=1179.3 kV=0.23 kW=1 PF=0.95
New Load.LOAD79 Phases=1 Bus1=1192.3 kV=0.23 kW=1 PF=0.95
New Load.LOAD80 Phases=1 Bus1=1196.2 kV=0.23 kW=1 PF=0.95
New Load.LOAD81 Phases=1 Bus1=1204.2 kV=0.23 kW=1 PF=0.95
New Load.LOAD82 Phases=1 Bus1=1223.1 kV=0.23 kW=1 PF=0.95
New Load.LOAD83 Phases=1 Bus1=1231.3 kV=0.23 kW=1 PF=0.95
New Load.LOAD84 Phases=1 Bus1=1238.1 kV=0.23 kW=1 PF=0.95
